STAT6-user-PROTAC
     RDKit          3D

107114  0  0  0  0  0  0  0  0999 V2000
   -8.2676   -2.8542   -4.0724 C   0  0  0  0  0  0  0  0  0  0  0  0
   -9.1654   -2.1935   -3.1915 O   0  0  0  0  0  0  0  0  0  0  0  0
   -8.6221   -1.4851   -2.1410 C   0  0  0  0  0  0  0  0  0  0  0  0
   -7.2437   -1.3115   -1.9252 C   0  0  0  0  0  0  0  0  0  0  0  0
   -6.7438   -0.5725   -0.8387 C   0  0  0  0  0  0  0  0  0  0  0  0
   -5.3766   -0.4144   -0.6480 N   0  0  0  0  0  0  0  0  0  0  0  0
   -4.8386    0.6878    0.1668 C   0  0  0  0  0  0  0  0  0  0  0  0
   -3.3898    1.0534   -0.2354 C   0  0  0  0  0  0  0  0  0  0  0  0
   -2.4823   -0.1067   -0.1873 N   0  0  0  0  0  0  0  0  0  0  0  0
   -3.1048   -1.4359   -0.3287 C   0  0  0  0  0  0  0  0  0  0  0  0
   -4.4018   -1.3862   -1.1717 C   0  0  0  0  0  0  0  0  0  0  0  0
   -1.1218    0.0343    0.0511 C   0  0  0  0  0  0  0  0  0  0  0  0
   -0.4617    1.2438   -0.2278 C   0  0  0  0  0  0  0  0  0  0  0  0
    0.9133    1.4172   -0.0022 C   0  0  0  0  0  0  0  0  0  0  0  0
    1.6971    0.3815    0.5201 C   0  0  0  0  0  0  0  0  0  0  0  0
    1.0559   -0.8290    0.7934 C   0  0  0  0  0  0  0  0  0  0  0  0
    1.7592   -1.8606    1.2902 F   0  0  0  0  0  0  0  0  0  0  0  0
   -0.3131   -0.9977    0.5676 C   0  0  0  0  0  0  0  0  0  0  0  0
   -0.8503   -2.1879    0.8874 F   0  0  0  0  0  0  0  0  0  0  0  0
    3.1337    0.5610    0.7501 C   0  0  0  0  0  0  0  0  0  0  0  0
    4.0957   -0.2163    0.0656 C   0  0  0  0  0  0  0  0  0  0  0  0
    5.4736   -0.0499    0.2700 C   0  0  0  0  0  0  0  0  0  0  0  0
    6.4323   -0.9006   -0.4675 C   0  0  0  0  0  0  0  0  0  0  0  0
    6.4237   -0.8945   -1.8154 C   0  0  0  0  0  0  0  0  0  0  0  0
    7.3484   -1.7651   -2.6136 C   0  0  0  0  0  0  0  0  0  0  0  0
    7.9177   -2.9014   -1.7650 C   0  0  0  0  0  0  0  0  0  0  0  0
    8.3947   -2.4022   -0.4752 N   0  0  0  0  0  0  0  0  0  0  0  0
    7.4002   -1.7232    0.3625 C   0  0  0  0  0  0  0  0  0  0  0  0
    9.6490   -2.6440    0.0656 C   0  0  0  0  0  0  0  0  0  0  0  0
   10.6816   -3.2907   -0.8381 C   0  0  0  0  0  0  0  0  0  0  0  0
   12.0810   -3.2334   -0.2388 C   0  0  0  0  0  0  0  0  0  0  0  0
   12.6769   -1.9151   -0.3657 N   0  0  0  0  0  0  0  0  0  0  0  0
   12.8246   -0.9769    0.6138 C   0  0  0  0  0  0  0  0  0  0  0  0
   13.4510    0.0949    0.0240 C   0  0  0  0  0  0  0  0  0  0  0  0
   13.6415   -0.2964   -1.3133 C   0  0  0  0  0  0  0  0  0  0  0  0
   13.1718   -1.5227   -1.5578 N   0  0  0  0  0  0  0  0  0  0  0  0
    9.9159   -2.3801    1.2390 O   0  0  0  0  0  0  0  0  0  0  0  0
    5.9082    0.9170    1.1842 C   0  0  0  0  0  0  0  0  0  0  0  0
    4.9629    1.6835    1.8679 C   0  0  0  0  0  0  0  0  0  0  0  0
    3.5921    1.5316    1.6777 C   0  0  0  0  0  0  0  0  0  0  0  0
    2.9620    2.4577    2.5647 C   0  0  0  0  0  0  0  0  0  0  0  0
    3.9377    3.1839    3.2277 C   0  0  0  0  0  0  0  0  0  0  0  0
    5.1445    2.6623    2.8131 N   0  0  0  0  0  0  0  0  0  0  0  0
    3.8838    4.2190    4.2436 C   0  0  0  0  0  0  0  0  0  0  0  0
    2.7737    5.0602    4.3088 N   0  0  0  0  0  0  0  0  0  0  0  0
    2.5958    5.8819    5.4936 C   0  0  0  0  0  0  0  0  0  0  0  0
    1.8268    5.2838    3.2295 C   0  0  0  0  0  0  0  0  0  0  0  0
    4.8205    4.3441    5.0327 O   0  0  0  0  0  0  0  0  0  0  0  0
    7.2139    1.1296    1.4026 F   0  0  0  0  0  0  0  0  0  0  0  0
   -7.7120   -0.0116    0.0147 C   0  0  0  0  0  0  0  0  0  0  0  0
   -9.0856   -0.1742   -0.1863 C   0  0  0  0  0  0  0  0  0  0  0  0
   -9.5684   -0.9169   -1.2597 C   0  0  0  0  0  0  0  0  0  0  0  0
  -10.9172   -1.0863   -1.5207 N   0  0  0  0  0  0  0  0  0  0  0  0
  -12.0381   -0.6130   -0.7210 C   0  0  0  0  0  0  0  0  0  0  0  0
  -12.3054    0.8646   -1.0021 C   0  0  0  0  0  0  0  0  0  0  0  0
  -13.4930    1.3353   -0.1784 C   0  0  0  0  0  0  0  0  0  0  0  0
  -14.7214    0.5039   -0.4564 C   0  0  0  0  0  0  0  0  0  0  0  0
  -14.5085   -0.7889   -0.8602 N   0  0  0  0  0  0  0  0  0  0  0  0
  -13.3043   -1.4179   -1.0761 C   0  0  0  0  0  0  0  0  0  0  0  0
  -13.2782   -2.5688   -1.5117 O   0  0  0  0  0  0  0  0  0  0  0  0
  -15.8576    0.9349   -0.2842 O   0  0  0  0  0  0  0  0  0  0  0  0
   -7.3419    0.6966    1.0954 F   0  0  0  0  0  0  0  0  0  0  0  0
   -7.6550   -3.5877   -3.5379 H   0  0  0  0  0  0  0  0  0  0  0  0
   -8.8643   -3.3966   -4.8121 H   0  0  0  0  0  0  0  0  0  0  0  0
   -7.6449   -2.1338   -4.6126 H   0  0  0  0  0  0  0  0  0  0  0  0
   -6.5373   -1.7333   -2.6300 H   0  0  0  0  0  0  0  0  0  0  0  0
   -5.4426    1.5945    0.0421 H   0  0  0  0  0  0  0  0  0  0  0  0
   -4.8622    0.3974    1.2242 H   0  0  0  0  0  0  0  0  0  0  0  0
   -3.3847    1.4633   -1.2528 H   0  0  0  0  0  0  0  0  0  0  0  0
   -3.0524    1.8400    0.4505 H   0  0  0  0  0  0  0  0  0  0  0  0
   -3.3309   -1.8331    0.6683 H   0  0  0  0  0  0  0  0  0  0  0  0
   -2.4247   -2.1318   -0.8340 H   0  0  0  0  0  0  0  0  0  0  0  0
   -4.1546   -1.1155   -2.2056 H   0  0  0  0  0  0  0  0  0  0  0  0
   -4.8247   -2.3983   -1.1767 H   0  0  0  0  0  0  0  0  0  0  0  0
   -1.0056    2.0807   -0.6597 H   0  0  0  0  0  0  0  0  0  0  0  0
    1.3698    2.3735   -0.2542 H   0  0  0  0  0  0  0  0  0  0  0  0
    3.7504   -0.9750   -0.6367 H   0  0  0  0  0  0  0  0  0  0  0  0
    5.7481   -0.2521   -2.3742 H   0  0  0  0  0  0  0  0  0  0  0  0
    6.8103   -2.1889   -3.4685 H   0  0  0  0  0  0  0  0  0  0  0  0
    8.1599   -1.1427   -3.0085 H   0  0  0  0  0  0  0  0  0  0  0  0
    7.1367   -3.6420   -1.5485 H   0  0  0  0  0  0  0  0  0  0  0  0
    8.6946   -3.4267   -2.3234 H   0  0  0  0  0  0  0  0  0  0  0  0
    6.8516   -2.5030    0.9045 H   0  0  0  0  0  0  0  0  0  0  0  0
    7.9154   -1.1012    1.1003 H   0  0  0  0  0  0  0  0  0  0  0  0
   10.3909   -4.3397   -0.9664 H   0  0  0  0  0  0  0  0  0  0  0  0
   10.6740   -2.8003   -1.8173 H   0  0  0  0  0  0  0  0  0  0  0  0
   12.0994   -3.5143    0.8199 H   0  0  0  0  0  0  0  0  0  0  0  0
   12.7447   -3.9251   -0.7713 H   0  0  0  0  0  0  0  0  0  0  0  0
   12.4655   -1.1435    1.6206 H   0  0  0  0  0  0  0  0  0  0  0  0
   13.7262    1.0283    0.4929 H   0  0  0  0  0  0  0  0  0  0  0  0
   14.1014    0.2606   -2.1191 H   0  0  0  0  0  0  0  0  0  0  0  0
    1.8949    2.5612    2.7098 H   0  0  0  0  0  0  0  0  0  0  0  0
    6.0423    2.9605    3.1755 H   0  0  0  0  0  0  0  0  0  0  0  0
    3.2295    5.5516    6.3210 H   0  0  0  0  0  0  0  0  0  0  0  0
    2.8476    6.9167    5.2432 H   0  0  0  0  0  0  0  0  0  0  0  0
    1.5500    5.8260    5.8107 H   0  0  0  0  0  0  0  0  0  0  0  0
    1.5875    6.3507    3.1756 H   0  0  0  0  0  0  0  0  0  0  0  0
    2.2356    4.9879    2.2615 H   0  0  0  0  0  0  0  0  0  0  0  0
    0.9128    4.7229    3.4433 H   0  0  0  0  0  0  0  0  0  0  0  0
   -9.7517    0.2898    0.5309 H   0  0  0  0  0  0  0  0  0  0  0  0
  -11.1248   -1.7789   -2.2444 H   0  0  0  0  0  0  0  0  0  0  0  0
  -11.8523   -0.7896    0.3458 H   0  0  0  0  0  0  0  0  0  0  0  0
  -12.5139    1.0138   -2.0703 H   0  0  0  0  0  0  0  0  0  0  0  0
  -11.4317    1.4800   -0.7626 H   0  0  0  0  0  0  0  0  0  0  0  0
  -13.7184    2.3793   -0.4210 H   0  0  0  0  0  0  0  0  0  0  0  0
  -13.2734    1.2718    0.8932 H   0  0  0  0  0  0  0  0  0  0  0  0
  -15.3352   -1.3358   -1.0583 H   0  0  0  0  0  0  0  0  0  0  0  0
  1  2  1  0
  2  3  1  0
  3  4  2  0
  4  5  1  0
  5  6  1  0
  6  7  1  0
  7  8  1  0
  8  9  1  0
  9 10  1  0
 10 11  1  0
  9 12  1  0
 12 13  1  0
 13 14  2  0
 14 15  1  0
 15 16  2  0
 16 17  1  0
 16 18  1  0
 18 19  1  0
 15 20  1  0
 20 21  1  0
 21 22  2  0
 22 23  1  0
 23 24  2  0
 24 25  1  0
 25 26  1  0
 26 27  1  0
 27 28  1  0
 27 29  1  0
 29 30  1  0
 30 31  1  0
 31 32  1  0
 32 33  1  0
 33 34  2  0
 34 35  1  0
 35 36  2  0
 29 37  2  0
 22 38  1  0
 38 39  2  0
 39 40  1  0
 40 41  1  0
 41 42  2  0
 42 43  1  0
 42 44  1  0
 44 45  1  0
 45 46  1  0
 45 47  1  0
 44 48  2  0
 38 49  1  0
  5 50  2  0
 50 51  1  0
 51 52  2  0
 52 53  1  0
 53 54  1  0
 54 55  1  0
 55 56  1  0
 56 57  1  0
 57 58  1  0
 58 59  1  0
 59 60  2  0
 57 61  2  0
 50 62  1  0
 52  3  1  0
 11  6  1  0
 18 12  2  0
 40 20  2  0
 28 23  1  0
 36 32  1  0
 43 39  1  0
 59 54  1  0
  1 63  1  0
  1 64  1  0
  1 65  1  0
  4 66  1  0
  7 67  1  0
  7 68  1  0
  8 69  1  0
  8 70  1  0
 10 71  1  0
 10 72  1  0
 11 73  1  0
 11 74  1  0
 13 75  1  0
 14 76  1  0
 21 77  1  0
 24 78  1  0
 25 79  1  0
 25 80  1  0
 26 81  1  0
 26 82  1  0
 28 83  1  0
 28 84  1  0
 30 85  1  0
 30 86  1  0
 31 87  1  0
 31 88  1  0
 33 89  1  0
 34 90  1  0
 35 91  1  0
 41 92  1  0
 43 93  1  0
 46 94  1  0
 46 95  1  0
 46 96  1  0
 47 97  1  0
 47 98  1  0
 47 99  1  0
 51100  1  0
 53101  1  0
 54102  1  0
 55103  1  0
 55104  1  0
 56105  1  0
 56106  1  0
 58107  1  0
M  END
>  <Target>  (1) 
STAT6

>  <Original_SMILES>  (1) 
COC1=CC(N2CCN(CC2)C3=CC=C(C(F)=C3F)C4=CC(C5=CCCN(C5)C(CCN6C=CC=N6)=O)=C(C7=C4C=C(N7)C(N(C)C)=O)F)=C(C=C1NC8CCC(NC8=O)=O)F

>  <Geometry>  (1) 
computed unbound conformer; not a binding pose

>  <Force_field>  (1) 
MMFF94s

>  <Energy_kcal_mol>  (1) 
180.94905650800018

>  <Seed>  (1) 
20261009

>  <Undefined_stereocenters>  (1) 
[53]

>  <Stereochemistry_note>  (1) 
Unspecified stereocenters in the input remain unresolved; this is one possible spatial conformer.

$$$$
