STAT6-user-warhead
     RDKit          3D

 53 56  0  0  0  0  0  0  0  0999 V2000
    5.0426   -1.1032    1.9142 O   0  0  0  0  0  0  0  0  0  0  0  0
    3.9214   -1.1292    1.4039 C   0  0  0  0  0  0  0  0  0  0  0  0
    3.0124   -2.3297    1.5999 C   0  0  0  0  0  0  0  0  0  0  0  0
    3.7615   -3.5220    2.1829 C   0  0  0  0  0  0  0  0  0  0  0  0
    4.6226   -4.1617    1.2109 N   0  0  0  0  0  0  0  0  0  0  0  0
    5.9800   -4.1163    1.1207 C   0  0  0  0  0  0  0  0  0  0  0  0
    6.2611   -4.9035    0.0315 C   0  0  0  0  0  0  0  0  0  0  0  0
    5.0975   -5.3956   -0.4888 N   0  0  0  0  0  0  0  0  0  0  0  0
    4.0932   -4.9358    0.2463 N   0  0  0  0  0  0  0  0  0  0  0  0
    3.4217   -0.0689    0.6618 N   0  0  0  0  0  0  0  0  0  0  0  0
    2.0945   -0.0491    0.0326 C   0  0  0  0  0  0  0  0  0  0  0  0
    4.3028    1.0546    0.3500 C   0  0  0  0  0  0  0  0  0  0  0  0
    3.6558    2.3862    0.7264 C   0  0  0  0  0  0  0  0  0  0  0  0
    2.2327    2.4605    0.2577 C   0  0  0  0  0  0  0  0  0  0  0  0
    1.5394    1.3561   -0.0816 C   0  0  0  0  0  0  0  0  0  0  0  0
    0.1473    1.4898   -0.5640 C   0  0  0  0  0  0  0  0  0  0  0  0
   -0.9139    0.8306    0.0752 C   0  0  0  0  0  0  0  0  0  0  0  0
   -0.7064    0.0720    1.1620 F   0  0  0  0  0  0  0  0  0  0  0  0
   -2.2096    0.9817   -0.4238 C   0  0  0  0  0  0  0  0  0  0  0  0
   -2.4921    1.7620   -1.5391 C   0  0  0  0  0  0  0  0  0  0  0  0
   -3.8945    1.6750   -1.7598 C   0  0  0  0  0  0  0  0  0  0  0  0
   -4.4512    0.8855   -0.7658 C   0  0  0  0  0  0  0  0  0  0  0  0
   -3.3963    0.4439    0.0068 N   0  0  0  0  0  0  0  0  0  0  0  0
   -5.8047    0.4329   -0.5024 C   0  0  0  0  0  0  0  0  0  0  0  0
   -6.8825    1.2165   -0.9116 N   0  0  0  0  0  0  0  0  0  0  0  0
   -6.8152    2.6339   -1.2269 C   0  0  0  0  0  0  0  0  0  0  0  0
   -8.2098    0.6260   -0.9102 C   0  0  0  0  0  0  0  0  0  0  0  0
   -5.9833   -0.6356    0.0829 O   0  0  0  0  0  0  0  0  0  0  0  0
   -1.4312    2.4196   -2.1890 C   0  0  0  0  0  0  0  0  0  0  0  0
   -0.1254    2.2781   -1.6920 C   0  0  0  0  0  0  0  0  0  0  0  0
    2.2218   -2.0312    2.2978 H   0  0  0  0  0  0  0  0  0  0  0  0
    2.5520   -2.6064    0.6454 H   0  0  0  0  0  0  0  0  0  0  0  0
    4.3735   -3.2459    3.0487 H   0  0  0  0  0  0  0  0  0  0  0  0
    3.0481   -4.2845    2.5175 H   0  0  0  0  0  0  0  0  0  0  0  0
    6.5962   -3.5418    1.7967 H   0  0  0  0  0  0  0  0  0  0  0  0
    7.2214   -5.1385   -0.4035 H   0  0  0  0  0  0  0  0  0  0  0  0
    1.4161   -0.6840    0.6044 H   0  0  0  0  0  0  0  0  0  0  0  0
    2.2081   -0.4864   -0.9664 H   0  0  0  0  0  0  0  0  0  0  0  0
    4.5005    1.0165   -0.7289 H   0  0  0  0  0  0  0  0  0  0  0  0
    5.2704    0.9631    0.8537 H   0  0  0  0  0  0  0  0  0  0  0  0
    4.2338    3.2051    0.2844 H   0  0  0  0  0  0  0  0  0  0  0  0
    3.6708    2.5211    1.8142 H   0  0  0  0  0  0  0  0  0  0  0  0
    1.7823    3.4488    0.2117 H   0  0  0  0  0  0  0  0  0  0  0  0
   -4.4325    2.1376   -2.5763 H   0  0  0  0  0  0  0  0  0  0  0  0
   -3.4987   -0.1950    0.7857 H   0  0  0  0  0  0  0  0  0  0  0  0
   -6.8363    2.7522   -2.3137 H   0  0  0  0  0  0  0  0  0  0  0  0
   -5.9204    3.1012   -0.8117 H   0  0  0  0  0  0  0  0  0  0  0  0
   -7.6842    3.1404   -0.7947 H   0  0  0  0  0  0  0  0  0  0  0  0
   -8.7172    0.8906   -1.8428 H   0  0  0  0  0  0  0  0  0  0  0  0
   -8.1736   -0.4637   -0.8292 H   0  0  0  0  0  0  0  0  0  0  0  0
   -8.7710    1.0277   -0.0613 H   0  0  0  0  0  0  0  0  0  0  0  0
   -1.6159    3.0307   -3.0683 H   0  0  0  0  0  0  0  0  0  0  0  0
    0.6844    2.7884   -2.2111 H   0  0  0  0  0  0  0  0  0  0  0  0
  1  2  2  0
  2  3  1  0
  3  4  1  0
  4  5  1  0
  5  6  1  0
  6  7  2  0
  7  8  1  0
  8  9  2  0
  2 10  1  0
 10 11  1  0
 10 12  1  0
 12 13  1  0
 13 14  1  0
 14 15  2  0
 15 16  1  0
 16 17  1  0
 17 18  1  0
 17 19  2  0
 19 20  1  0
 20 21  1  0
 21 22  2  0
 22 23  1  0
 22 24  1  0
 24 25  1  0
 25 26  1  0
 25 27  1  0
 24 28  2  0
 20 29  2  0
 29 30  1  0
  9  5  1  0
 15 11  1  0
 30 16  2  0
 23 19  1  0
  3 31  1  0
  3 32  1  0
  4 33  1  0
  4 34  1  0
  6 35  1  0
  7 36  1  0
 11 37  1  0
 11 38  1  0
 12 39  1  0
 12 40  1  0
 13 41  1  0
 13 42  1  0
 14 43  1  0
 21 44  1  0
 23 45  1  0
 26 46  1  0
 26 47  1  0
 26 48  1  0
 27 49  1  0
 27 50  1  0
 27 51  1  0
 29 52  1  0
 30 53  1  0
M  END
>  <Target>  (1) 
STAT6

>  <Original_SMILES>  (1) 
O=C(CCN1C=CN=N1)N(C2)CCC=C2C3=C(F)C4=C(C=C(N4)C(N(C)C)=O)C=C3

>  <Geometry>  (1) 
computed unbound conformer; not a binding pose

>  <Force_field>  (1) 
MMFF94s

>  <Energy_kcal_mol>  (1) 
-17.554914894726352

>  <Seed>  (1) 
20261009

>  <Undefined_stereocenters>  (1) 
[]

>  <Stereochemistry_note>  (1) 
Unspecified stereocenters in the input remain unresolved; this is one possible spatial conformer.

$$$$
